# Packages
 &PACKAGES
 useMNC=.TRUE.,
 useDiagnostics=.TRUE.,
 useRBCS=.TRUE.,
 useKPP=.FALSE.,
 &
